      10
 i =      117, E =       -98.8730168679
  O         3.7085027516        0.8055741511       -0.5151044552
  O         5.9521161129        2.2014018871       -0.8887223686
  C         4.9401126789        0.1216172058       -0.8447354378
  C         6.1728009408        0.9572878140       -1.0133400166
  H         5.1888302694       -0.6128543233       -0.0763726601
  H         3.0182214231        0.1474168827       -0.4534980942
 Ca         5.3411631690        4.0132651087       -0.0083998837
  O         5.7621558715        5.9534080803        0.1410158349
  H         6.0471494549        6.8581305597        0.0972589985
  H         4.8406931493       -0.4301579238       -1.7819524320
