      16
 i =      189, E =      -458.2312020684
  O        -0.2063414707       -1.0592154095       -1.0589527785
  O         1.7403125790       -0.4425022742        0.7655663052
  O        -2.2520098668        0.6671596319       -0.4896077711
  O         1.3858441579        1.9726418926       -0.1483486548
  C        -0.5423400851       -0.8762352430        0.3037367415
  C         0.4535529303        0.0984145332        0.9490613604
  C        -1.9973137211       -0.4442645241        0.3480082480
  C         0.4049585213        1.4954847172        0.3675480920
  H        -0.4449916524       -1.8206765643        0.8540462419
  H         0.2113388246        0.1841339637        2.0187177689
  H        -2.2764814956       -0.1562919639        1.3631615667
  H        -2.6164598520       -1.2992606092        0.0588867442
  H        -0.5368280991        2.0512410683        0.4592015334
  H         0.7531000745       -1.1726475315       -1.0874102346
  H         2.2860161952        0.2795013393        0.4110629026
  H        -1.9130078741        0.4359009679       -1.3639834240
