      10
 i =       68, E =       -98.9478682951
 Ca        -1.9361771111        1.2968977776       -0.4678474829
  O         0.0443099159        0.9868979681       -0.2356252949
  H         0.9594641485        0.7473480485       -0.1571738902
  C        -5.2518780102        0.7718142827       -0.9136878760
  H        -5.6998639684       -0.1320789279       -0.4754193071
  H        -5.5999626392        0.8075488806       -1.9492154930
  C        -5.8545201198        1.9435847208       -0.1808564704
  H        -5.1940235543        2.3041552136        0.6418529058
  O        -6.8959666742        2.4859623475       -0.4234800528
  O        -3.8883353332        0.7996058425       -0.7971630276
