       8
 i =      146, E =       -77.0885711812
 Ca         0.1935565097        1.5105419394        0.8445460549
  O        -0.8780673326        2.0993053354       -0.7783813502
  H        -1.3350455452        2.5715385937       -1.4636396907
  C         1.5873718445        2.4558924201        2.6231025710
  H         2.4779023714        3.0173553786        2.3307462416
  H         1.0944594205        3.0562197387        3.3919702052
  O         2.0044918086        1.1712624950        3.2190499778
  H         2.5697243691        1.3337633976        3.9740921536
