      12
 i =      132, E =      -100.1633915940
 Ca         2.0366633106        1.8603970819       -0.9354365325
  O         0.0521127342        1.4562200600       -1.1693280217
  H        -0.8503099429        1.2122064955       -1.3329418881
  C         5.9008514854        1.0869843451       -0.0793913371
  H         6.9690160376        0.9026658842       -0.2048208952
  H         5.7640367936        1.7509281878        0.7761088640
  C         5.3664689527        1.7631249294       -1.3167733405
  H         5.9812049174        2.6584356114       -1.4751034342
  H         5.5600617723        1.1038800902       -2.1712311171
  O         4.0322537150        2.0641038629       -1.2196804608
  O         5.1972985994       -0.1389293707        0.1352948002
  H         5.5874556262       -0.5749413299        0.8902707383
