       4
 i =       24, E =       -22.9694759006
  O        17.0160116353       30.0510460647        0.0467144617
  C        16.9665456113       28.8566075522        0.0070025433
  H        16.0087313181       28.3086722077       -0.0089204749
  H        17.8754322429       28.2319037363       -0.0142461597
