      10
 i =       17, E =       -47.1970866360
  O        -1.3612640671       -0.6101655002       -0.1388902259
  O         1.4550438406       -0.6078658375        0.1406677134
  C        -0.6545388120        0.5590036971        0.2685938136
  C         0.7546763187        0.5505263561       -0.2639157215
  H        -1.1742306578        1.4654092886       -0.0397750498
  H        -0.6419226800        0.5270935098        1.3517221528
  H         1.3017773206        1.4071748082        0.1177917873
  H         0.7380347634        0.6351709971       -1.3550264286
  H        -1.5641240774       -0.5272452945       -1.0705261267
  H         0.8444212362       -1.3400203514        0.0276239210
